This is test1. test1 is here.
new line.
master copy
